[root]
type=Root
children=system
eventq_index=0
full_system=false
sim_quantum=0
time_sync_enable=false
time_sync_period=100000000000
time_sync_spin_threshold=100000000

[system]
type=System
children=acc0_datapath acc1_datapath clk_domain cpu cpu_clk_domain cpu_voltage_domain dvfs_handler mem_ctrls redirect_paths0 redirect_paths1 ruby switch_cpus sys_port_proxy voltage_domain
boot_osflags=a
cache_line_size=32
eventq_index=0
exit_on_work_items=false
init_param=0
kernel=
kernel_addr_check=true
kernel_extras=
kernel_extras_addrs=
kvm_vm=Null
load_addr_mask=18446744073709551615
load_offset=0
m5ops_base=4294901760
mem_mode=atomic_noncaching
mem_ranges=0:4294967296
memories=system.mem_ctrls system.ruby.phys_mem
mmap_using_noreserve=false
multi_thread=false
num_work_ids=16
readfile=
redirect_paths=system.redirect_paths0 system.redirect_paths1
symbolfile=
thermal_components=
thermal_model=Null
work_begin_ckpt_count=0
work_begin_cpu_id_exit=-1
work_begin_exit_count=0
work_cpus_ckpt_count=0
work_end_ckpt_count=0
work_end_exit_count=0
work_item_id=-1
system_port=system.sys_port_proxy.slave[0]

[system.acc0_datapath]
type=HybridDatapath
children=clk_domain
acceleratorId=3
acceleratorName=acc0_datapath
acpCacheLatency=1
acpCacheMSHRs=16
acpCacheSize=128B
benchName=acc0
cacheAssoc=2
cacheBandwidth=4
cacheHitLatency=1
cacheLineFlushLatency=12
cacheLineInvalidateLatency=12
cacheLineSize=64
cacheQueueSize=32
cacheSize=16kB
cactiCacheConfig=
cactiCacheQueueConfig=
clk_domain=system.acc0_datapath.clk_domain
configFileName=./smv-accel.cfg
cycleTime=1
default_p_state=UNDEFINED
dmaChunkSize=64
dmaSetupOverhead=100
enableAcp=true
enableStatsDump=false
eventq_index=0
experimentName=NULL
ignoreCacheFlush=false
invalidateOnDmaStore=true
l2cacheSize=128kB
maxDmaRequests=16
numDmaChannels=1
numOutStandingWalks=4
outputPrefix=./outputs/nnet_fwd
p_state_clk_gate_bins=20
p_state_clk_gate_max=1000000000000
p_state_clk_gate_min=1000
pipelinedDma=true
power_model=
recordMemoryTrace=false
spadPorts=1
system=system
tlbAssoc=4
tlbBandwidth=1
tlbCactiConfig=
tlbEntries=0
tlbHitLatency=0
tlbMissLatency=10
tlbPageBytes=4096
traceFileName=./dynamic_trace_acc0.gz
useAcpCache=true
useAladdinDebugger=false
useDb=false
acp_port=system.ruby.acp_cntrl_acc0.sequencer.slave[0]
cache_port=system.ruby.l1_cntrl_acc0.sequencer.slave[0]
spad_port=system.ruby.spad_cntrl_acc0.dma_sequencer.slave[0]

[system.acc0_datapath.clk_domain]
type=SrcClockDomain
clock=1000
domain_id=-1
eventq_index=0
init_perf_level=0
voltage_domain=system.cpu_voltage_domain

[system.acc1_datapath]
type=HybridDatapath
children=clk_domain
acceleratorId=4
acceleratorName=acc1_datapath
acpCacheLatency=1
acpCacheMSHRs=16
acpCacheSize=128B
benchName=acc1
cacheAssoc=2
cacheBandwidth=4
cacheHitLatency=1
cacheLineFlushLatency=12
cacheLineInvalidateLatency=12
cacheLineSize=64
cacheQueueSize=32
cacheSize=16kB
cactiCacheConfig=
cactiCacheQueueConfig=
clk_domain=system.acc1_datapath.clk_domain
configFileName=./smv-accel.cfg
cycleTime=1
default_p_state=UNDEFINED
dmaChunkSize=64
dmaSetupOverhead=100
enableAcp=true
enableStatsDump=false
eventq_index=0
experimentName=NULL
ignoreCacheFlush=false
invalidateOnDmaStore=true
l2cacheSize=128kB
maxDmaRequests=16
numDmaChannels=1
numOutStandingWalks=4
outputPrefix=./outputs/nnet_fwd
p_state_clk_gate_bins=20
p_state_clk_gate_max=1000000000000
p_state_clk_gate_min=1000
pipelinedDma=true
power_model=
recordMemoryTrace=false
spadPorts=1
system=system
tlbAssoc=4
tlbBandwidth=1
tlbCactiConfig=
tlbEntries=0
tlbHitLatency=0
tlbMissLatency=10
tlbPageBytes=4096
traceFileName=./dynamic_trace_acc1.gz
useAcpCache=true
useAladdinDebugger=false
useDb=false
acp_port=system.ruby.acp_cntrl_acc1.sequencer.slave[0]
cache_port=system.ruby.l1_cntrl_acc1.sequencer.slave[0]
spad_port=system.ruby.spad_cntrl_acc1.dma_sequencer.slave[0]

[system.acc1_datapath.clk_domain]
type=SrcClockDomain
clock=1000
domain_id=-1
eventq_index=0
init_perf_level=0
voltage_domain=system.cpu_voltage_domain

[system.clk_domain]
type=SrcClockDomain
clock=1000
domain_id=-1
eventq_index=0
init_perf_level=0
voltage_domain=system.voltage_domain

[system.cpu]
type=AtomicSimpleCPU
children=dtb interrupts isa itb tracer workload
branchPred=Null
checker=Null
clk_domain=system.clk_domain
cpu_id=0
default_p_state=UNDEFINED
do_checkpoint_insts=true
do_quiesce=true
do_statistics_insts=true
dtb=system.cpu.dtb
eventq_index=0
function_trace=false
function_trace_start=0
interrupts=system.cpu.interrupts
isa=system.cpu.isa
itb=system.cpu.itb
max_insts_all_threads=0
max_insts_any_thread=10000000000
numThreads=1
p_state_clk_gate_bins=20
p_state_clk_gate_max=1000000000000
p_state_clk_gate_min=1000
power_gating_on_idle=false
power_model=
profile=0
progress_interval=0
pwr_gating_latency=300
simpoint_start_insts=
simulate_data_stalls=false
simulate_inst_stalls=false
socket_id=0
switched_out=false
syscallRetryLatency=10000
system=system
tracer=system.cpu.tracer
wait_for_remote_gdb=false
width=1
workload=system.cpu.workload
dcache_port=system.ruby.l1_cntrl0.sequencer.slave[1]
icache_port=system.ruby.l1_cntrl0.sequencer.slave[0]

[system.cpu.dtb]
type=X86TLB
children=walker
eventq_index=0
size=64
walker=system.cpu.dtb.walker

[system.cpu.dtb.walker]
type=X86PagetableWalker
clk_domain=system.clk_domain
default_p_state=UNDEFINED
eventq_index=0
num_squash_per_cycle=4
p_state_clk_gate_bins=20
p_state_clk_gate_max=1000000000000
p_state_clk_gate_min=1000
power_model=
system=system
port=system.ruby.l1_cntrl0.sequencer.slave[4]

[system.cpu.interrupts]
type=X86LocalApic
children=clk_domain
clk_domain=system.cpu.interrupts.clk_domain
eventq_index=0
int_latency=1000
pio_latency=100000
system=system
int_master=system.ruby.l1_cntrl0.sequencer.slave[2]
int_slave=system.ruby.l1_cntrl0.sequencer.master[1]
pio=system.ruby.l1_cntrl0.sequencer.master[0]

[system.cpu.interrupts.clk_domain]
type=DerivedClockDomain
clk_divider=16
clk_domain=system.clk_domain
eventq_index=0

[system.cpu.isa]
type=X86ISA
eventq_index=0

[system.cpu.itb]
type=X86TLB
children=walker
eventq_index=0
size=64
walker=system.cpu.itb.walker

[system.cpu.itb.walker]
type=X86PagetableWalker
clk_domain=system.clk_domain
default_p_state=UNDEFINED
eventq_index=0
num_squash_per_cycle=4
p_state_clk_gate_bins=20
p_state_clk_gate_max=1000000000000
p_state_clk_gate_min=1000
power_model=
system=system
port=system.ruby.l1_cntrl0.sequencer.slave[3]

[system.cpu.tracer]
type=ExeTracer
eventq_index=0

[system.cpu.workload]
type=Process
cmd=/workspace/smaug/build/bin/smaug my_model_topo.pbtxt my_model_params.pb --gem5 --debug-level=0 --num-accels=2
cwd=/workspace/smaug/two_models
drivers=
egid=100
env=
errout=cerr
euid=100
eventq_index=0
executable=/workspace/smaug/build/bin/smaug
gid=100
input=cin
kvmInSE=false
maxStackSize=67108864
output=cout
pgid=100
pid=100
ppid=0
release=5.1.0
simpoint=0
system=system
uid=100
useArchPT=false

[system.cpu_clk_domain]
type=SrcClockDomain
clock=400
domain_id=-1
eventq_index=0
init_perf_level=0
voltage_domain=system.cpu_voltage_domain

[system.cpu_voltage_domain]
type=VoltageDomain
eventq_index=0
voltage=1.0

[system.dvfs_handler]
type=DVFSHandler
domains=
enable=false
eventq_index=0
sys_clk_domain=system.clk_domain
transition_latency=100000000

[system.mem_ctrls]
type=DRAMCtrl
IDD0=0.01
IDD02=0.06
IDD2N=0.0012
IDD2N2=0.036
IDD2P0=0.0012
IDD2P02=0.0014
IDD2P1=0.0012
IDD2P12=0.0014
IDD3N=0.0036
IDD3N2=0.038
IDD3P0=0.0012
IDD3P02=0.01
IDD3P1=0.0012
IDD3P12=0.01
IDD4R=0.0036
IDD4R2=0.5
IDD4W=0.0036
IDD4W2=0.4
IDD5=0.04
IDD52=0.175
IDD6=0.0004
IDD62=0.0015
VDD=1.8
VDD2=1.1
activation_limit=4
addr_mapping=RoRaBaCoCh
bank_groups_per_rank=0
banks_per_rank=8
burst_length=16
clk_domain=system.clk_domain
conf_table_reported=true
default_p_state=UNDEFINED
device_bus_width=16
device_rowbuffer_size=2048
device_size=1073741824
devices_per_rank=2
dll=false
enable_dram_powerdown=false
eventq_index=0
in_addr_map=true
kvm_map=false
max_accesses_per_row=16
mem_sched_policy=frfcfs
min_writes_per_switch=16
null=false
p_state_clk_gate_bins=20
p_state_clk_gate_max=1000000000000
p_state_clk_gate_min=1000
page_policy=open_adaptive
power_model=
qos_masters=               
qos_policy=Null
qos_priorities=1
qos_priority_escalation=false
qos_q_policy=fifo
qos_syncro_scheduler=false
qos_turnaround_policy=Null
range=0:4294967296
ranks_per_channel=2
read_buffer_size=32
static_backend_latency=10000
static_frontend_latency=10000
tBURST=5000
tCCD_L=0
tCCD_L_WR=0
tCK=625
tCL=17500
tCS=1250
tRAS=42000
tRCD=18000
tREFI=3904000
tRFC=180000
tRP=18000
tRRD=10000
tRRD_L=0
tRTP=7500
tRTW=1250
tWR=18000
tWTR=10000
tXAW=40000
tXP=7500
tXPDLL=0
tXS=0
tXSDLL=187500
write_buffer_size=64
write_high_thresh_perc=85
write_low_thresh_perc=50
port=system.ruby.dir_cntrl0.memory

[system.redirect_paths0]
type=RedirectPath
app_path=/proc
eventq_index=0
host_paths=outputs/fs/proc

[system.redirect_paths1]
type=RedirectPath
app_path=/sys
eventq_index=0
host_paths=outputs/fs/sys

[system.ruby]
type=RubySystem
children=acp_cntrl_acc0 acp_cntrl_acc1 clk_domain dir_cntrl0 l1_cntrl0 l1_cntrl_acc0 l1_cntrl_acc1 l2_cntrl0 memctrl_clk_domain network phys_mem spad_cntrl_acc0 spad_cntrl_acc1
access_backing_store=true
all_instructions=false
block_size_bytes=32
clk_domain=system.ruby.clk_domain
default_p_state=UNDEFINED
eventq_index=0
hot_lines=false
memory_size_bits=48
num_of_sequencers=7
number_of_virtual_networks=3
p_state_clk_gate_bins=20
p_state_clk_gate_max=1000000000000
p_state_clk_gate_min=1000
phys_mem=system.ruby.phys_mem
power_model=
randomization=false

[system.ruby.acp_cntrl_acc0]
type=ACP_Controller
children=mandatoryQueue requestToL2 responseFromL2 sequencer
addr_ranges=0:18446744073709551615
buffer_size=0
clk_domain=system.ruby.clk_domain
cluster_id=0
default_p_state=UNDEFINED
eventq_index=0
l2_select_num_bits=0
mandatoryQueue=system.ruby.acp_cntrl_acc0.mandatoryQueue
mandatory_queue_latency=1
number_of_TBEs=256
p_state_clk_gate_bins=20
p_state_clk_gate_max=1000000000000
p_state_clk_gate_min=1000
power_model=
recycle_latency=10
requestToL2=system.ruby.acp_cntrl_acc0.requestToL2
request_latency=1
responseFromL2=system.ruby.acp_cntrl_acc0.responseFromL2
ruby_system=system.ruby
sequencer=system.ruby.acp_cntrl_acc0.sequencer
system=system
transitions_per_cycle=32
version=0
write_through=true

[system.ruby.acp_cntrl_acc0.mandatoryQueue]
type=MessageBuffer
buffer_size=0
eventq_index=0
ordered=false
randomization=false

[system.ruby.acp_cntrl_acc0.requestToL2]
type=MessageBuffer
buffer_size=0
eventq_index=0
ordered=false
randomization=false
master=system.ruby.network.slave[12]

[system.ruby.acp_cntrl_acc0.responseFromL2]
type=MessageBuffer
buffer_size=0
eventq_index=0
ordered=true
randomization=false
slave=system.ruby.network.master[10]

[system.ruby.acp_cntrl_acc0.sequencer]
type=RubySequencer
children=dcache icache
clk_domain=system.ruby.clk_domain
coreid=99
dcache=system.ruby.acp_cntrl_acc0.sequencer.dcache
deadlock_threshold=500000
default_p_state=UNDEFINED
eventq_index=0
garnet_standalone=false
icache=system.ruby.acp_cntrl_acc0.sequencer.icache
is_cpu_sequencer=true
max_outstanding_requests=16
no_retry_on_stall=false
p_state_clk_gate_bins=20
p_state_clk_gate_max=1000000000000
p_state_clk_gate_min=1000
power_model=
ruby_system=system.ruby
support_data_reqs=true
support_inst_reqs=true
system=system
using_ruby_tester=false
version=0
slave=system.acc0_datapath.acp_port

[system.ruby.acp_cntrl_acc0.sequencer.dcache]
type=RubyCache
children=replacement_policy
assoc=2
block_size=0
dataAccessLatency=1
dataArrayBanks=1
eventq_index=0
is_icache=false
replacement_policy=system.ruby.acp_cntrl_acc0.sequencer.dcache.replacement_policy
resourceStalls=false
ruby_system=system.ruby
size=256
start_index_bit=5
tagAccessLatency=1
tagArrayBanks=1

[system.ruby.acp_cntrl_acc0.sequencer.dcache.replacement_policy]
type=TreePLRURP
eventq_index=0
num_leaves=2

[system.ruby.acp_cntrl_acc0.sequencer.icache]
type=RubyCache
children=replacement_policy
assoc=2
block_size=0
dataAccessLatency=1
dataArrayBanks=1
eventq_index=0
is_icache=true
replacement_policy=system.ruby.acp_cntrl_acc0.sequencer.icache.replacement_policy
resourceStalls=false
ruby_system=system.ruby
size=256
start_index_bit=5
tagAccessLatency=1
tagArrayBanks=1

[system.ruby.acp_cntrl_acc0.sequencer.icache.replacement_policy]
type=TreePLRURP
eventq_index=0
num_leaves=2

[system.ruby.acp_cntrl_acc1]
type=ACP_Controller
children=mandatoryQueue requestToL2 responseFromL2 sequencer
addr_ranges=0:18446744073709551615
buffer_size=0
clk_domain=system.ruby.clk_domain
cluster_id=0
default_p_state=UNDEFINED
eventq_index=0
l2_select_num_bits=0
mandatoryQueue=system.ruby.acp_cntrl_acc1.mandatoryQueue
mandatory_queue_latency=1
number_of_TBEs=256
p_state_clk_gate_bins=20
p_state_clk_gate_max=1000000000000
p_state_clk_gate_min=1000
power_model=
recycle_latency=10
requestToL2=system.ruby.acp_cntrl_acc1.requestToL2
request_latency=1
responseFromL2=system.ruby.acp_cntrl_acc1.responseFromL2
ruby_system=system.ruby
sequencer=system.ruby.acp_cntrl_acc1.sequencer
system=system
transitions_per_cycle=32
version=1
write_through=true

[system.ruby.acp_cntrl_acc1.mandatoryQueue]
type=MessageBuffer
buffer_size=0
eventq_index=0
ordered=false
randomization=false

[system.ruby.acp_cntrl_acc1.requestToL2]
type=MessageBuffer
buffer_size=0
eventq_index=0
ordered=false
randomization=false
master=system.ruby.network.slave[17]

[system.ruby.acp_cntrl_acc1.responseFromL2]
type=MessageBuffer
buffer_size=0
eventq_index=0
ordered=true
randomization=false
slave=system.ruby.network.master[14]

[system.ruby.acp_cntrl_acc1.sequencer]
type=RubySequencer
children=dcache icache
clk_domain=system.ruby.clk_domain
coreid=99
dcache=system.ruby.acp_cntrl_acc1.sequencer.dcache
deadlock_threshold=500000
default_p_state=UNDEFINED
eventq_index=0
garnet_standalone=false
icache=system.ruby.acp_cntrl_acc1.sequencer.icache
is_cpu_sequencer=true
max_outstanding_requests=16
no_retry_on_stall=false
p_state_clk_gate_bins=20
p_state_clk_gate_max=1000000000000
p_state_clk_gate_min=1000
power_model=
ruby_system=system.ruby
support_data_reqs=true
support_inst_reqs=true
system=system
using_ruby_tester=false
version=1
slave=system.acc1_datapath.acp_port

[system.ruby.acp_cntrl_acc1.sequencer.dcache]
type=RubyCache
children=replacement_policy
assoc=2
block_size=0
dataAccessLatency=1
dataArrayBanks=1
eventq_index=0
is_icache=false
replacement_policy=system.ruby.acp_cntrl_acc1.sequencer.dcache.replacement_policy
resourceStalls=false
ruby_system=system.ruby
size=256
start_index_bit=5
tagAccessLatency=1
tagArrayBanks=1

[system.ruby.acp_cntrl_acc1.sequencer.dcache.replacement_policy]
type=TreePLRURP
eventq_index=0
num_leaves=2

[system.ruby.acp_cntrl_acc1.sequencer.icache]
type=RubyCache
children=replacement_policy
assoc=2
block_size=0
dataAccessLatency=1
dataArrayBanks=1
eventq_index=0
is_icache=true
replacement_policy=system.ruby.acp_cntrl_acc1.sequencer.icache.replacement_policy
resourceStalls=false
ruby_system=system.ruby
size=256
start_index_bit=5
tagAccessLatency=1
tagArrayBanks=1

[system.ruby.acp_cntrl_acc1.sequencer.icache.replacement_policy]
type=TreePLRURP
eventq_index=0
num_leaves=2

[system.ruby.clk_domain]
type=SrcClockDomain
clock=500
domain_id=-1
eventq_index=0
init_perf_level=0
voltage_domain=system.voltage_domain

[system.ruby.dir_cntrl0]
type=Directory_Controller
children=directory requestFromDir requestToDir responseFromDir responseFromMemory responseToDir
addr_ranges=0:4294967296
buffer_size=0
clk_domain=system.ruby.clk_domain
cluster_id=0
default_p_state=UNDEFINED
directory=system.ruby.dir_cntrl0.directory
directory_latency=6
eventq_index=0
mandatory_queue_latency=1
number_of_TBEs=256
p_state_clk_gate_bins=20
p_state_clk_gate_max=1000000000000
p_state_clk_gate_min=1000
power_model=
recycle_latency=10
requestFromDir=system.ruby.dir_cntrl0.requestFromDir
requestToDir=system.ruby.dir_cntrl0.requestToDir
responseFromDir=system.ruby.dir_cntrl0.responseFromDir
responseFromMemory=system.ruby.dir_cntrl0.responseFromMemory
responseToDir=system.ruby.dir_cntrl0.responseToDir
ruby_system=system.ruby
system=system
to_mem_ctrl_latency=1
transitions_per_cycle=32
version=0
write_through=false
memory=system.mem_ctrls.port

[system.ruby.dir_cntrl0.directory]
type=RubyDirectoryMemory
addr_ranges=0:4294967296
eventq_index=0

[system.ruby.dir_cntrl0.requestFromDir]
type=MessageBuffer
buffer_size=0
eventq_index=0
ordered=false
randomization=false
master=system.ruby.network.slave[6]

[system.ruby.dir_cntrl0.requestToDir]
type=MessageBuffer
buffer_size=0
eventq_index=0
ordered=false
randomization=false
slave=system.ruby.network.master[5]

[system.ruby.dir_cntrl0.responseFromDir]
type=MessageBuffer
buffer_size=0
eventq_index=0
ordered=false
randomization=false
master=system.ruby.network.slave[7]

[system.ruby.dir_cntrl0.responseFromMemory]
type=MessageBuffer
buffer_size=0
eventq_index=0
ordered=false
randomization=false

[system.ruby.dir_cntrl0.responseToDir]
type=MessageBuffer
buffer_size=0
eventq_index=0
ordered=false
randomization=false
slave=system.ruby.network.master[6]

[system.ruby.l1_cntrl0]
type=L1Cache_Controller
children=L1Dcache L1Icache mandatoryQueue optionalQueue prefetcher requestFromL1Cache requestToL1Cache responseFromL1Cache responseToL1Cache sequencer unblockFromL1Cache
L1Dcache=system.ruby.l1_cntrl0.L1Dcache
L1Icache=system.ruby.l1_cntrl0.L1Icache
addr_ranges=0:18446744073709551615
buffer_size=0
clk_domain=system.ruby.clk_domain
cluster_id=0
default_p_state=UNDEFINED
enable_prefetch=false
eventq_index=0
l1_request_latency=2
l1_response_latency=2
l2_select_num_bits=0
mandatoryQueue=system.ruby.l1_cntrl0.mandatoryQueue
mandatory_queue_latency=1
number_of_TBEs=256
optionalQueue=system.ruby.l1_cntrl0.optionalQueue
p_state_clk_gate_bins=20
p_state_clk_gate_max=1000000000000
p_state_clk_gate_min=1000
power_model=
prefetcher=system.ruby.l1_cntrl0.prefetcher
recycle_latency=10
requestFromL1Cache=system.ruby.l1_cntrl0.requestFromL1Cache
requestToL1Cache=system.ruby.l1_cntrl0.requestToL1Cache
responseFromL1Cache=system.ruby.l1_cntrl0.responseFromL1Cache
responseToL1Cache=system.ruby.l1_cntrl0.responseToL1Cache
ruby_system=system.ruby
send_evictions=true
sequencer=system.ruby.l1_cntrl0.sequencer
system=system
to_l2_latency=1
transitions_per_cycle=4
unblockFromL1Cache=system.ruby.l1_cntrl0.unblockFromL1Cache
version=0
write_through=false

[system.ruby.l1_cntrl0.L1Dcache]
type=RubyCache
children=replacement_policy
assoc=2
block_size=0
dataAccessLatency=1
dataArrayBanks=1
eventq_index=0
is_icache=false
replacement_policy=system.ruby.l1_cntrl0.L1Dcache.replacement_policy
resourceStalls=false
ruby_system=system.ruby
size=65536
start_index_bit=5
tagAccessLatency=1
tagArrayBanks=1

[system.ruby.l1_cntrl0.L1Dcache.replacement_policy]
type=TreePLRURP
eventq_index=0
num_leaves=2

[system.ruby.l1_cntrl0.L1Icache]
type=RubyCache
children=replacement_policy
assoc=2
block_size=0
dataAccessLatency=1
dataArrayBanks=1
eventq_index=0
is_icache=true
replacement_policy=system.ruby.l1_cntrl0.L1Icache.replacement_policy
resourceStalls=false
ruby_system=system.ruby
size=32768
start_index_bit=5
tagAccessLatency=1
tagArrayBanks=1

[system.ruby.l1_cntrl0.L1Icache.replacement_policy]
type=TreePLRURP
eventq_index=0
num_leaves=2

[system.ruby.l1_cntrl0.mandatoryQueue]
type=MessageBuffer
buffer_size=0
eventq_index=0
ordered=false
randomization=false

[system.ruby.l1_cntrl0.optionalQueue]
type=MessageBuffer
buffer_size=0
eventq_index=0
ordered=false
randomization=false

[system.ruby.l1_cntrl0.prefetcher]
type=Prefetcher
cross_page=false
eventq_index=0
nonunit_filter=8
num_startup_pfs=1
num_streams=4
pf_per_stream=1
sys=system
train_misses=4
unit_filter=8

[system.ruby.l1_cntrl0.requestFromL1Cache]
type=MessageBuffer
buffer_size=0
eventq_index=0
ordered=false
randomization=false
master=system.ruby.network.slave[0]

[system.ruby.l1_cntrl0.requestToL1Cache]
type=MessageBuffer
buffer_size=0
eventq_index=0
ordered=false
randomization=false
slave=system.ruby.network.master[0]

[system.ruby.l1_cntrl0.responseFromL1Cache]
type=MessageBuffer
buffer_size=0
eventq_index=0
ordered=false
randomization=false
master=system.ruby.network.slave[1]

[system.ruby.l1_cntrl0.responseToL1Cache]
type=MessageBuffer
buffer_size=0
eventq_index=0
ordered=false
randomization=false
slave=system.ruby.network.master[1]

[system.ruby.l1_cntrl0.sequencer]
type=RubySequencer
clk_domain=system.ruby.clk_domain
coreid=99
dcache=system.ruby.l1_cntrl0.L1Dcache
deadlock_threshold=500000
default_p_state=UNDEFINED
eventq_index=0
garnet_standalone=false
icache=system.ruby.l1_cntrl0.L1Icache
is_cpu_sequencer=true
max_outstanding_requests=16
no_retry_on_stall=false
p_state_clk_gate_bins=20
p_state_clk_gate_max=1000000000000
p_state_clk_gate_min=1000
power_model=
ruby_system=system.ruby
support_data_reqs=true
support_inst_reqs=true
system=system
using_ruby_tester=false
version=0
master=system.cpu.interrupts.pio system.cpu.interrupts.int_slave
slave=system.cpu.icache_port system.cpu.dcache_port system.cpu.interrupts.int_master system.cpu.itb.walker.port system.cpu.dtb.walker.port

[system.ruby.l1_cntrl0.unblockFromL1Cache]
type=MessageBuffer
buffer_size=0
eventq_index=0
ordered=false
randomization=false
master=system.ruby.network.slave[2]

[system.ruby.l1_cntrl_acc0]
type=L1Cache_Controller
children=L1Dcache L1Icache mandatoryQueue optionalQueue prefetcher requestFromL1Cache requestToL1Cache responseFromL1Cache responseToL1Cache sequencer unblockFromL1Cache
L1Dcache=system.ruby.l1_cntrl_acc0.L1Dcache
L1Icache=system.ruby.l1_cntrl_acc0.L1Icache
addr_ranges=0:18446744073709551615
buffer_size=0
clk_domain=system.ruby.clk_domain
cluster_id=0
default_p_state=UNDEFINED
enable_prefetch=false
eventq_index=0
l1_request_latency=2
l1_response_latency=2
l2_select_num_bits=0
mandatoryQueue=system.ruby.l1_cntrl_acc0.mandatoryQueue
mandatory_queue_latency=1
number_of_TBEs=256
optionalQueue=system.ruby.l1_cntrl_acc0.optionalQueue
p_state_clk_gate_bins=20
p_state_clk_gate_max=1000000000000
p_state_clk_gate_min=1000
power_model=
prefetcher=system.ruby.l1_cntrl_acc0.prefetcher
recycle_latency=10
requestFromL1Cache=system.ruby.l1_cntrl_acc0.requestFromL1Cache
requestToL1Cache=system.ruby.l1_cntrl_acc0.requestToL1Cache
responseFromL1Cache=system.ruby.l1_cntrl_acc0.responseFromL1Cache
responseToL1Cache=system.ruby.l1_cntrl_acc0.responseToL1Cache
ruby_system=system.ruby
send_evictions=true
sequencer=system.ruby.l1_cntrl_acc0.sequencer
system=system
to_l2_latency=1
transitions_per_cycle=32
unblockFromL1Cache=system.ruby.l1_cntrl_acc0.unblockFromL1Cache
version=1
write_through=false

[system.ruby.l1_cntrl_acc0.L1Dcache]
type=RubyCache
children=replacement_policy
assoc=2
block_size=0
dataAccessLatency=1
dataArrayBanks=1
eventq_index=0
is_icache=false
replacement_policy=system.ruby.l1_cntrl_acc0.L1Dcache.replacement_policy
resourceStalls=false
ruby_system=system.ruby
size=16384
start_index_bit=5
tagAccessLatency=1
tagArrayBanks=1

[system.ruby.l1_cntrl_acc0.L1Dcache.replacement_policy]
type=TreePLRURP
eventq_index=0
num_leaves=2

[system.ruby.l1_cntrl_acc0.L1Icache]
type=RubyCache
children=replacement_policy
assoc=2
block_size=0
dataAccessLatency=1
dataArrayBanks=1
eventq_index=0
is_icache=true
replacement_policy=system.ruby.l1_cntrl_acc0.L1Icache.replacement_policy
resourceStalls=false
ruby_system=system.ruby
size=256
start_index_bit=5
tagAccessLatency=1
tagArrayBanks=1

[system.ruby.l1_cntrl_acc0.L1Icache.replacement_policy]
type=TreePLRURP
eventq_index=0
num_leaves=2

[system.ruby.l1_cntrl_acc0.mandatoryQueue]
type=MessageBuffer
buffer_size=0
eventq_index=0
ordered=false
randomization=false

[system.ruby.l1_cntrl_acc0.optionalQueue]
type=MessageBuffer
buffer_size=0
eventq_index=0
ordered=false
randomization=false

[system.ruby.l1_cntrl_acc0.prefetcher]
type=Prefetcher
cross_page=false
eventq_index=0
nonunit_filter=8
num_startup_pfs=1
num_streams=4
pf_per_stream=1
sys=system
train_misses=4
unit_filter=8

[system.ruby.l1_cntrl_acc0.requestFromL1Cache]
type=MessageBuffer
buffer_size=0
eventq_index=0
ordered=false
randomization=false
master=system.ruby.network.slave[8]

[system.ruby.l1_cntrl_acc0.requestToL1Cache]
type=MessageBuffer
buffer_size=0
eventq_index=0
ordered=false
randomization=false
slave=system.ruby.network.master[7]

[system.ruby.l1_cntrl_acc0.responseFromL1Cache]
type=MessageBuffer
buffer_size=0
eventq_index=0
ordered=false
randomization=false
master=system.ruby.network.slave[9]

[system.ruby.l1_cntrl_acc0.responseToL1Cache]
type=MessageBuffer
buffer_size=0
eventq_index=0
ordered=false
randomization=false
slave=system.ruby.network.master[8]

[system.ruby.l1_cntrl_acc0.sequencer]
type=RubySequencer
clk_domain=system.ruby.clk_domain
coreid=99
dcache=system.ruby.l1_cntrl_acc0.L1Dcache
deadlock_threshold=500000
default_p_state=UNDEFINED
eventq_index=0
garnet_standalone=false
icache=system.ruby.l1_cntrl_acc0.L1Icache
is_cpu_sequencer=true
max_outstanding_requests=16
no_retry_on_stall=false
p_state_clk_gate_bins=20
p_state_clk_gate_max=1000000000000
p_state_clk_gate_min=1000
power_model=
ruby_system=system.ruby
support_data_reqs=true
support_inst_reqs=true
system=system
using_ruby_tester=false
version=1
slave=system.acc0_datapath.cache_port

[system.ruby.l1_cntrl_acc0.unblockFromL1Cache]
type=MessageBuffer
buffer_size=0
eventq_index=0
ordered=false
randomization=false
master=system.ruby.network.slave[10]

[system.ruby.l1_cntrl_acc1]
type=L1Cache_Controller
children=L1Dcache L1Icache mandatoryQueue optionalQueue prefetcher requestFromL1Cache requestToL1Cache responseFromL1Cache responseToL1Cache sequencer unblockFromL1Cache
L1Dcache=system.ruby.l1_cntrl_acc1.L1Dcache
L1Icache=system.ruby.l1_cntrl_acc1.L1Icache
addr_ranges=0:18446744073709551615
buffer_size=0
clk_domain=system.ruby.clk_domain
cluster_id=0
default_p_state=UNDEFINED
enable_prefetch=false
eventq_index=0
l1_request_latency=2
l1_response_latency=2
l2_select_num_bits=0
mandatoryQueue=system.ruby.l1_cntrl_acc1.mandatoryQueue
mandatory_queue_latency=1
number_of_TBEs=256
optionalQueue=system.ruby.l1_cntrl_acc1.optionalQueue
p_state_clk_gate_bins=20
p_state_clk_gate_max=1000000000000
p_state_clk_gate_min=1000
power_model=
prefetcher=system.ruby.l1_cntrl_acc1.prefetcher
recycle_latency=10
requestFromL1Cache=system.ruby.l1_cntrl_acc1.requestFromL1Cache
requestToL1Cache=system.ruby.l1_cntrl_acc1.requestToL1Cache
responseFromL1Cache=system.ruby.l1_cntrl_acc1.responseFromL1Cache
responseToL1Cache=system.ruby.l1_cntrl_acc1.responseToL1Cache
ruby_system=system.ruby
send_evictions=true
sequencer=system.ruby.l1_cntrl_acc1.sequencer
system=system
to_l2_latency=1
transitions_per_cycle=32
unblockFromL1Cache=system.ruby.l1_cntrl_acc1.unblockFromL1Cache
version=2
write_through=false

[system.ruby.l1_cntrl_acc1.L1Dcache]
type=RubyCache
children=replacement_policy
assoc=2
block_size=0
dataAccessLatency=1
dataArrayBanks=1
eventq_index=0
is_icache=false
replacement_policy=system.ruby.l1_cntrl_acc1.L1Dcache.replacement_policy
resourceStalls=false
ruby_system=system.ruby
size=16384
start_index_bit=5
tagAccessLatency=1
tagArrayBanks=1

[system.ruby.l1_cntrl_acc1.L1Dcache.replacement_policy]
type=TreePLRURP
eventq_index=0
num_leaves=2

[system.ruby.l1_cntrl_acc1.L1Icache]
type=RubyCache
children=replacement_policy
assoc=2
block_size=0
dataAccessLatency=1
dataArrayBanks=1
eventq_index=0
is_icache=true
replacement_policy=system.ruby.l1_cntrl_acc1.L1Icache.replacement_policy
resourceStalls=false
ruby_system=system.ruby
size=256
start_index_bit=5
tagAccessLatency=1
tagArrayBanks=1

[system.ruby.l1_cntrl_acc1.L1Icache.replacement_policy]
type=TreePLRURP
eventq_index=0
num_leaves=2

[system.ruby.l1_cntrl_acc1.mandatoryQueue]
type=MessageBuffer
buffer_size=0
eventq_index=0
ordered=false
randomization=false

[system.ruby.l1_cntrl_acc1.optionalQueue]
type=MessageBuffer
buffer_size=0
eventq_index=0
ordered=false
randomization=false

[system.ruby.l1_cntrl_acc1.prefetcher]
type=Prefetcher
cross_page=false
eventq_index=0
nonunit_filter=8
num_startup_pfs=1
num_streams=4
pf_per_stream=1
sys=system
train_misses=4
unit_filter=8

[system.ruby.l1_cntrl_acc1.requestFromL1Cache]
type=MessageBuffer
buffer_size=0
eventq_index=0
ordered=false
randomization=false
master=system.ruby.network.slave[13]

[system.ruby.l1_cntrl_acc1.requestToL1Cache]
type=MessageBuffer
buffer_size=0
eventq_index=0
ordered=false
randomization=false
slave=system.ruby.network.master[11]

[system.ruby.l1_cntrl_acc1.responseFromL1Cache]
type=MessageBuffer
buffer_size=0
eventq_index=0
ordered=false
randomization=false
master=system.ruby.network.slave[14]

[system.ruby.l1_cntrl_acc1.responseToL1Cache]
type=MessageBuffer
buffer_size=0
eventq_index=0
ordered=false
randomization=false
slave=system.ruby.network.master[12]

[system.ruby.l1_cntrl_acc1.sequencer]
type=RubySequencer
clk_domain=system.ruby.clk_domain
coreid=99
dcache=system.ruby.l1_cntrl_acc1.L1Dcache
deadlock_threshold=500000
default_p_state=UNDEFINED
eventq_index=0
garnet_standalone=false
icache=system.ruby.l1_cntrl_acc1.L1Icache
is_cpu_sequencer=true
max_outstanding_requests=16
no_retry_on_stall=false
p_state_clk_gate_bins=20
p_state_clk_gate_max=1000000000000
p_state_clk_gate_min=1000
power_model=
ruby_system=system.ruby
support_data_reqs=true
support_inst_reqs=true
system=system
using_ruby_tester=false
version=2
slave=system.acc1_datapath.cache_port

[system.ruby.l1_cntrl_acc1.unblockFromL1Cache]
type=MessageBuffer
buffer_size=0
eventq_index=0
ordered=false
randomization=false
master=system.ruby.network.slave[15]

[system.ruby.l2_cntrl0]
type=L2Cache_Controller
children=DirRequestFromL2Cache L1RequestFromL2Cache L1RequestToL2Cache L2cache responseFromL2Cache responseToL2Cache unblockToL2Cache
DirRequestFromL2Cache=system.ruby.l2_cntrl0.DirRequestFromL2Cache
L1RequestFromL2Cache=system.ruby.l2_cntrl0.L1RequestFromL2Cache
L1RequestToL2Cache=system.ruby.l2_cntrl0.L1RequestToL2Cache
L2cache=system.ruby.l2_cntrl0.L2cache
addr_ranges=0:18446744073709551615
buffer_size=0
clk_domain=system.ruby.clk_domain
cluster_id=0